; Filename: Mudu2.inp
; WNTR: 0.3.0
; Created: 2024-07-06 13:08:10
[TITLE]

[JUNCTIONS]
;ID                      Elevation       Demand Pattern                 
 1                                  0             0.5 1                          ;
 2                                  0             0.5 1                          ;
 3                                  0             0.5 1                          ;
 4                                  0             0.5 1                          ;
 5                                  0             0.5 1                          ;
 6                                  0             0.5 1                          ;
 7                                  0             0.5 1                          ;
 8                                  0             0.5 2                          ;
 9                                  0             0.5 2                          ;
 10                                 0             0.5 2                          ;
 11                                 0             0.5 2                          ;
 12                                 0             0.5 2                          ;
 13                                 0             0.5 2                          ;
 14                                 0             0.5 2                          ;
 15                                 0             0.5 2                          ;
 16                                 0             0.5 3                          ;
 17                                 0             0.5 2                          ;
 18                                 0             0.5 2                          ;
 19                                 0             0.5 2                          ;
 20                                 0             0.5 2                          ;
 21                                 0             0.5 2                          ;
 22                                 0             0.5 2                          ;
 23                                 0             0.5 2                          ;
 24                                 0             0.5 2                          ;
 25                                 0             0.5 2                          ;
 26                                 0             0.5 2                          ;
 27                                 0             0.5 4                          ;
 28                                 0             0.5 4                          ;
 29                                 0             0.5 4                          ;
 30                                 0             0.5 4                          ;
 31                                 0             0.5 4                          ;
 32                                 0             0.5 3                          ;
 33                                 0             0.5 3                          ;
 34                                 0             0.5 3                          ;
 35                                 0             0.5 3                          ;
 36                                 0             0.5 3                          ;
 37                                 0             0.5 3                          ;
 38                                 0             0.5 3                          ;
 39                                 0             0.5 3                          ;
 42                                 0             0.5 3                          ;
 43                                 0             0.5 3                          ;
 44                                 0             0.5 4                          ;
 45                                 0             0.5 4                          ;
 46                                 0             0.5 4                          ;
 48                                 0             0.5 5                          ;
 49                                 0             0.5 5                          ;
 50                                 0             0.5 5                          ;
 51                                 0             0.5 5                          ;
 52                                 0             0.5 6                          ;
 53                                 0             0.5 6                          ;
 54                                 0             0.5 6                          ;
 55                                 0             0.5 6                          ;
 56                                 0             0.5 6                          ;
 57                                 0             0.5 6                          ;
 58                                 0             0.5 6                          ;
 59                                 0             0.5 6                          ;
 60                                 0             0.5 6                          ;
 61                                 0             0.5 6                          ;
 62                                 0             0.5 8                          ;
 63                                 0             0.5 12                         ;
 65                                 0             0.5 12                         ;
 66                                 0             0.5 12                         ;
 67                                 0             0.5 12                         ;
 68                                 0             0.5 12                         ;
 69                                 0             0.5 12                         ;
 70                                 0             0.5 12                         ;
 71                                 0             0.5 12                         ;
 72                                 0             0.5 12                         ;
 73                                 0             0.5 12                         ;
 74                                 0             0.5 12                         ;
 75                                 0             0.5 12                         ;
 76                                 0             0.5 12                         ;
 77                                 0             0.5 12                         ;
 78                                 0             0.5 12                         ;
 79                                 0             0.5 12                         ;
 80                                 0             0.5 13                         ;
 81                                 0             0.5 13                         ;
 82                                 0             0.5 13                         ;
 83                                 0             0.5 13                         ;
 84                                 0             0.5 13                         ;
 85                                 0             0.5 13                         ;
 86                                 0             0.5 12                         ;
 87                                 0             0.5 12                         ;
 88                                 0             0.5 12                         ;
 89                                 0             0.5 12                         ;
 90                                 0             0.5 12                         ;
 91                                 0             0.5 12                         ;
 92                                 0             0.5 12                         ;
 93                                 0             0.5 13                         ;
 94                                 0             0.5 13                         ;
 95                                 0             0.5 13                         ;
 96                                 0             0.5 13                         ;
 97                                 0             0.5 13                         ;
 98                                 0             0.5 13                         ;
 99                                 0             0.5 13                         ;
 100                                0             0.5 16                         ;
 101                                0             0.5 12                         ;
 102                                0             0.5 12                         ;
 103                                0             0.5 12                         ;
 104                                0             0.5 16                         ;
 105                                0             0.5 16                         ;
 106                                0             0.5 16                         ;
 107                                0             0.5 16                         ;
 108                                0             0.5 16                         ;
 109                                0             0.5 17                         ;
 110                                0             0.5 17                         ;
 111                                0             0.5 17                         ;
 112                                0             0.5 17                         ;
 113                                0             0.5 17                         ;
 114                                0             0.5 17                         ;
 115                                0             0.5 16                         ;
 116                                0             0.5 16                         ;
 117                                0             0.5 16                         ;
 118                                0             0.5 16                         ;
 119                                0             0.5 16                         ;
 120                                0             0.5 16                         ;
 121                                0             0.5 16                         ;
 122                                0             0.5 16                         ;
 123                                0             0.5 16                         ;
 124                                0             0.5 17                         ;
 125                                0             0.5 16                         ;
 126                                0             0.5 16                         ;
 127                                0             0.5 16                         ;
 128                                0             0.5 16                         ;
 129                                0             0.5 16                         ;
 130                                0             0.5 16                         ;
 131                                0             0.5 16                         ;
 132                                0             0.5 16                         ;
 133                                0             0.5 16                         ;
 134                                0             0.5 16                         ;
 135                                0             0.5 16                         ;
 136                                0             0.5 16                         ;
 137                                0             0.5 16                         ;
 138                                0             0.5 16                         ;
 139                                0             0.5 16                         ;
 140                                0             0.5 16                         ;
 141                                0             0.5 16                         ;
 142                                0             0.5 17                         ;
 143                                0             0.5 17                         ;
 144                                0             0.5 17                         ;
 145                                0             0.5 17                         ;
 146                                0             0.5 17                         ;
 147                                0             0.5 17                         ;
 148                                0             0.5 17                         ;
 149                                0             0.5 17                         ;
 150                                0             0.5 17                         ;
 151                                0             0.5 17                         ;
 152                                0             0.5 17                         ;
 153                                0             0.5 17                         ;
 154                                0             0.5 17                         ;
 155                                0             0.5 17                         ;
 156                                0             0.5 17                         ;
 157                                0             0.5 17                         ;
 158                                0             0.5 17                         ;
 159                                0             0.5 17                         ;
 160                                0             0.5 17                         ;
 161                                0             0.5 17                         ;
 162                                0             0.5 13                         ;
 163                                0             0.5 13                         ;
 164                                0             0.5 13                         ;
 165                                0             0.5 13                         ;
 166                                0             0.5 13                         ;
 167                                0             0.5 15                         ;
 168                                0             0.5 13                         ;
 169                                0             0.5 13                         ;
 170                                0             0.5 13                         ;
 171                                0             0.5 13                         ;
 172                                0             0.5 13                         ;
 173                                0             0.5 15                         ;
 174                                0             0.5 13                         ;
 175                                0             0.5 15                         ;
 176                                0             0.5 15                         ;
 177                                0             0.5 14                         ;
 178                                0             0.5 14                         ;
 179                                0             0.5 14                         ;
 180                                0             0.5 14                         ;
 181                                0             0.5 14                         ;
 182                                0             0.5 14                         ;
 183                                0             0.5 14                         ;
 184                                0             0.5 14                         ;
 185                                0             0.5 14                         ;
 186                                0             0.5 14                         ;
 187                                0             0.5 14                         ;
 188                                0             0.5 13                         ;
 189                                0             0.5 13                         ;
 190                                0             0.5 13                         ;
 191                                0             0.5 13                         ;
 192                                0             0.5 13                         ;
 193                                0             0.5 13                         ;
 194                                0             0.5 13                         ;
 195                                0             0.5 13                         ;
 196                                0             0.5 13                         ;
 197                                0             0.5 13                         ;
 198                                0             0.5 13                         ;
 199                                0             0.5 13                         ;
 200                                0             0.5 13                         ;
 201                                0             0.5 9                          ;
 202                                0             0.5 13                         ;
 203                                0             0.5 9                          ;
 204                                0             0.5 9                          ;
 205                                0             0.5 8                          ;
 206                                0             0.5 9                          ;
 207                                0             0.5 9                          ;
 208                                0             0.5 9                          ;
 209                                0             0.5 9                          ;
 210                                0             0.5 8                          ;
 211                                0             0.5 8                          ;
 212                                0             0.5 8                          ;
 213                                0             0.5 8                          ;
 214                                0             0.5 8                          ;
 215                                0             0.5 8                          ;
 216                                0             0.5 8                          ;
 217                                0             0.5 8                          ;
 218                                0             0.5 9                          ;
 219                                0             0.5 9                          ;
 220                                0             0.5 9                          ;
 221                                0             0.5 9                          ;
 222                                0             0.5 9                          ;
 223                                0             0.5 9                          ;
 226                                0             0.5 8                          ;
 227                                0             0.5 9                          ;
 228                                0             0.5 9                          ;
 229                                0             0.5 9                          ;
 230                                0             0.5 9                          ;
 232                                0             0.5 7                          ;
 233                                0             0.5 7                          ;
 234                                0             0.5 7                          ;
 235                                0             0.5 7                          ;
 236                                0             0.5 7                          ;
 237                                0             0.5 8                          ;
 238                                0             0.5 7                          ;
 239                                0             0.5 7                          ;
 240                                0             0.5 8                          ;
 241                                0             0.5 8                          ;
 242                                0             0.5 8                          ;
 243                                0             0.5 8                          ;
 244                                0             0.5 8                          ;
 246                                0             0.5 8                          ;
 247                                0             0.5 8                          ;
 248                                0             0.5 8                          ;
 249                                0             0.5 8                          ;
 250                                0             0.5 7                          ;
 251                                0             0.5 7                          ;
 260                                0             0.5 7                          ;
 261                                0             0.5 7                          ;
 265                                0             0.5 7                          ;
 266                                0             0.5 7                          ;
 267                                0             0.5 7                          ;
 268                                0             0.5 7                          ;
 269                                0             0.5 7                          ;
 270                                0             0.5 7                          ;
 271                                0             0.5 7                          ;
 272                                0             0.5 7                          ;
 273                                0             0.5 7                          ;
 274                                0             0.5 7                          ;
 275                                0             0.5 7                          ;
 276                                0             0.5 7                          ;
 277                                0             0.5 7                          ;
 278                                0             0.5 7                          ;
 279                                0             0.5 10                         ;
 280                                0             0.5 10                         ;
 281                                0             0.5 10                         ;
 282                                0             0.5 10                         ;
 283                                0             0.5 10                         ;
 284                                0             0.5 10                         ;
 285                                0             0.5 10                         ;
 286                                0             0.5 10                         ;
 287                                0             0.5 10                         ;
 288                                0             0.5 10                         ;
 289                                0             0.5 5                          ;
 290                                0             0.5 10                         ;
 291                                0             0.5 10                         ;
 292                                0             0.5 10                         ;
 293                                0             0.5 10                         ;
 294                                0             0.5 10                         ;
 295                                0             0.5 10                         ;
 296                                0             0.5 10                         ;
 297                                0             0.5 10                         ;
 298                                0             0.5 10                         ;
 299                                0             0.5 10                         ;
 300                                0             0.5 10                         ;
 301                                0             0.5 10                         ;
 302                                0             0.5 10                         ;
 303                                0             0.5 10                         ;
 304                                0             0.5 10                         ;
 305                                0             0.5 10                         ;
 306                                0             0.5 10                         ;
 307                                0             0.5 10                         ;
 308                                0             0.5 10                         ;
 309                                0             0.5 9                          ;
 310                                0             0.5 9                          ;
 311                                0             0.5 13                         ;
 312                                0             0.5 10                         ;
 313                                0             0.5 11                         ;
 314                                0             0.5 11                         ;
 315                                0             0.5 11                         ;
 316                                0             0.5 11                         ;
 317                                0             0.5 11                         ;
 318                                0             0.5 11                         ;
 319                                0             0.5 11                         ;
 320                                0             0.5 11                         ;
 321                                0             0.5 11                         ;
 322                                0             0.5 11                         ;
 323                                0             0.5 11                         ;
 324                                0             0.5 11                         ;
 325                                0             0.5 11                         ;
 326                                0             0.5 11                         ;
 327                                0             0.5 11                         ;
 328                                0             0.5 11                         ;
 329                                0             0.5 11                         ;
 330                                0             0.5 11                         ;
 331                                0             0.5 14                         ;
 332                                0             0.5 14                         ;
 333                                0             0.5 14                         ;
 334                                0             0.5 15                         ;
 335                                0             0.5 15                         ;
 336                                0             0.5 15                         ;
 337                                0             0.5 15                         ;
 338                                0             0.5 15                         ;
 339                                0             0.5 15                         ;
 340                                0             0.5 15                         ;
 341                                0             0.5 15                         ;
 342                                0             0.5 15                         ;
 343                                0             0.5 15                         ;
 344                                0             0.5 15                         ;
 345                                0             0.5 15                         ;
 346                                0             0.5 11                         ;
 347                                0             0.5 11                         ;
 348                                0             0.5 11                         ;
 349                                0             0.5 11                         ;
 350                                0             0.5 7                          ;
 351                                0             0.5 7                          ;
 352                                0             0.5 7                          ;
 353                                0             0.5 7                          ;
 354                                0             0.5 7                          ;
 355                                0             0.5 7                          ;
 356                                0             0.5 7                          ;
 357                                0             0.5 7                          ;
 358                                0             0.5 7                          ;
 359                                0             0.5 7                          ;
 360                                0             0.5 7                          ;
 363                                0             0.5 17                         ;
 364                                0             0.5 17                         ;
 365                                0             0.5 17                         ;
 366                                0             0.5 16                         ;
 367                                0             0.5 16                         ;
 368                                0             0.5 12                         ;
 369                                0             0.5 12                         ;
 370                                0             0.5 12                         ;
 371                                0             0.5 12                         ;
 372                                0             0.5 1                          ;
 373                                0             0.5 2                          ;
 374                                0             0.5 2                          ;
 375                                0             0.5 3                          ;
 377                                0             0.5 3                          ;
 378                                0             0.5 3                          ;
 379                                0             0.5 3                          ;
 380                                0             0.5 3                          ;
 381                                0             0.5 4                          ;